         498
  Built with Packmol                                             
  H           12.924389       14.873900        3.830250
  C           13.012550       13.812814        3.581224
  H           13.666113       13.319470        4.311227
  H           12.020473       13.345948        3.615902
  O           13.555098       13.799907        2.296331
  H           13.650285       12.892404        2.036717
  H           14.416835       16.778339       10.858980
  C           15.155429       16.596432       10.073437
  H           15.842287       15.803606       10.394514
  H           14.643185       16.277078        9.157466
  O           15.803630       17.821088        9.913656
  H           16.458642       17.710151        9.236402
  H            5.693138        5.029167       16.446305
  C            5.739898        5.509723       17.427411
  H            4.844406        5.248832       18.004878
  H            6.628266        5.156212       17.965199
  O            5.804586        6.874082       17.144897
  H            5.846831        7.334539       17.973277
  H            8.185607        5.257498        3.514466
  C            8.713405        4.611185        4.221148
  H            9.130824        5.220845        5.032020
  H            8.010658        3.883604        4.645595
  O            9.707567        3.998671        3.458296
  H           10.194978        3.423956        4.034624
  H           13.640846        2.015210        2.942585
  C           13.668620        3.042239        3.316925
  H           14.442169        3.128343        4.090001
  H           13.908758        3.724992        2.492568
  O           12.389020        3.262615        3.826369
  H           12.366204        4.148529        4.164978
  H            6.164048        9.194646       14.671386
  C            7.094254        9.298697       14.106072
  H            7.919557        8.854179       14.675911
  H            6.998967        8.775414       13.146656
  O            7.250209       10.674908       13.941151
  H            8.051081       10.813955       13.451978
  H           11.198210       -0.005562        2.129223
  C           10.923569        0.973519        1.727152
  H           11.765909        1.666259        1.845532
  H           10.686747        0.876834        0.660405
  O            9.814403        1.360785        2.478983
  H            9.539307        2.211852        2.162710
  H            9.305329        9.188439       12.430165
  C           10.163487        8.770980       12.964002
  H           11.090546        9.167313       12.531660
  H           10.110423        9.057751       14.021514
  O           10.047735        7.392352       12.786630
  H           10.777131        6.985321       13.236437
  H           16.257878        1.134774        7.420397
  C           15.233963        0.785455        7.261446
  H           15.145227        0.360960        6.253791
  H           14.994129        0.009750        7.999108
  O           14.447249        1.925837        7.422952
  H           13.543361        1.668764        7.292879
  H           16.366322       12.052352        8.967178
  C           15.765208       12.964210        9.020733
  H           14.831008       12.818956        8.464307
  H           15.527209       13.183640       10.068869
  O           16.571327       13.947655        8.447598
  H           16.086801       14.762908        8.472440
  H           13.013508        5.209537        9.750728
  C           13.128746        6.182306        9.264797
  H           13.309477        6.035852        8.192731
  H           12.210137        6.767313        9.396362
  O           14.220448        6.766116        9.907314
  H           14.358746        7.618873        9.515269
  H           12.292306        6.880377        2.012574
  C           12.533535        6.657445        3.055550
  H           11.623470        6.344171        3.581934
  H           13.267860        5.843426        3.094549
  O           13.046736        7.853045        3.558185
  H           13.271550        7.706027        4.468055
  H           16.570245       16.564074        6.037476
  C           17.107748       17.085632        5.240759
  H           16.456961       17.852277        4.802385
  H           17.999769       17.569063        5.657864
  O           17.431806       16.084534        4.325192
  H           17.902998       16.493938        3.610779
  H           15.126461        9.616314        0.786273
  C           14.975316        9.981990        1.805648
  H           15.696450        9.499920        2.477223
  H           15.132389       11.067372        1.831281
  O           13.659317        9.633849        2.109657
  H           13.482235        9.933690        2.992129
  H            4.780439        9.337111        8.270640
  C            5.258884        9.572159        9.225383
  H            4.861548       10.519825        9.609430
  H            5.043924        8.774919        9.947590
  O            6.618034        9.655543        8.923334
  H            7.076484        9.859580        9.728450
  H            4.956782       12.262297        1.014387
  C            4.835726       11.683436        1.934145
  H            5.820323       11.496873        2.380465
  H            4.222272       12.251001        2.644728
  O            4.211795       10.504934        1.525103
  H            4.085674        9.967180        2.296423
  H            8.593253       16.454242        8.419026
  C            8.705124       16.814649        9.445321
  H            9.367341       16.138248        9.999748
  H            9.147217       17.818542        9.433647
  O            7.407766       16.817389        9.957501
  H            7.456176       17.125493       10.853463
  H            4.779904        7.202137        0.066487
  C            4.958899        6.330202        0.701610
  H            5.338340        6.660288        1.676548
  H            4.017608        5.786534        0.849186
  O            5.898155        5.574481        0.000070
  H            6.085414        4.801667        0.517480
  H            5.112841        6.693577       10.882831
  C            4.576644        5.761580       10.683926
  H            4.531962        5.162890       11.602082
  H            3.555243        5.990793       10.355925
  O            5.322120        5.136699        9.684293
  H            4.890954        4.317229        9.477932
  H            7.592073        9.913810        0.065222
  C            7.039215        9.182152        0.660802
  H            6.227260        9.687426        1.198264
  H            6.610211        8.420815       -0.002301
  O            7.991464        8.647468        1.528447
  H            7.553522        8.002630        2.069197
  H            7.393136        3.058409        0.807749
  C            7.054374        2.752166        1.801302
  H            7.651313        3.265778        2.565046
  H            5.999524        3.025451        1.927751
  O            7.246116        1.370807        1.824876
  H            6.963593        1.058751        2.675065
  H            5.540901        5.145327        5.893427
  C            5.964998        5.780908        5.111207
  H            6.098338        5.192559        4.194962
  H            5.280456        6.613138        4.905831
  O            7.180651        6.217640        5.637446
  H            7.587466        6.776778        4.987918
  H           12.179056        4.708880        1.558375
  C           11.843497        4.350895        0.581166
  H           11.453964        5.194070       -0.002580
  H           12.690420        3.905187        0.045024
  O           10.854141        3.412425        0.874293
  H           10.531228        3.072310        0.049630
  H            9.059187       13.790694        4.993435
  C            8.771923       14.693368        5.539648
  H            7.712328       14.909837        5.355701
  H            8.923376       14.533611        6.614322
  O            9.607730       15.688506        5.033089
  H            9.392544       16.496368        5.481502
  H            7.284665       12.807664       12.062204
  C            7.774398       12.877926       11.087056
  H            7.567396       11.969382       10.508147
  H            7.382191       13.746116       10.543177
  O            9.129947       13.013460       11.386376
  H            9.597933       13.078374       10.563700
  H           12.261298       -0.012023        5.879209
  C           11.740663        0.405238        5.012882
  H           11.840967        1.497645        5.017830
  H           12.187298        0.008875        4.092667
  O           10.416218       -0.002083        5.172285
  H            9.922941        0.339837        4.437582
  H            5.664340       14.197808        4.771155
  C            4.961941       14.988792        5.048046
  H            5.082678       15.839557        4.366094
  H            3.935549       14.609707        4.969314
  O            5.302942       15.314390        6.360745
  H            4.714986       16.002443        6.645195
  H            8.768203        8.773748        5.890444
  C            8.170004        8.674403        6.800378
  H            8.590564        7.879742        7.428933
  H            8.191367        9.619770        7.356443
  O            6.889661        8.361783        6.343797
  H            6.331722        8.265403        7.105003
  H            0.220466       15.374922        9.340050
  C            0.916530       16.119072        8.943283
  H            1.941406       15.846845        9.224282
  H            0.839899       16.144004        7.849258
  O            0.512749       17.320198        9.526149
  H            1.093105       18.000020        9.208267
  H           11.179500       15.000177        6.470560
  C           11.849770       14.985429        7.334395
  H           11.854108       15.973896        7.810158
  H           11.495950       14.241157        8.058450
  O           13.095698       14.651695        6.803586
  H           13.714027       14.627017        7.522670
  H            6.309678        9.704388       18.000188
  C            7.266723        9.999043       17.560947
  H            8.058114        9.335665       17.931173
  H            7.209207        9.912976       16.468853
  O            7.449457       11.318220       17.975502
  H            8.274243       11.618092       17.615190
  H            2.516620       17.051003       11.293213
  C            2.345509       16.403104       12.157295
  H            3.300712       16.202280       12.657991
  H            1.670521       16.904609       12.861757
  O            1.780048       15.246863       11.619863
  H            1.613269       14.650907       12.338919
  H           10.640398        3.131730       16.100588
  C           11.075572        3.060361       15.099978
  H           10.394099        2.504519       14.444179
  H           11.221737        4.068363       14.692608
  O           12.283859        2.390546       15.291982
  H           12.699800        2.305084       14.443625
  H           11.179242        5.244171        7.861446
  C           10.917997        5.690698        6.898091
  H           11.027674        4.939874        6.105833
  H            9.876223        6.033292        6.924923
  O           11.815475        6.747912        6.748733
  H           11.624883        7.168047        5.919769
  H           10.404829        0.584711       11.756963
  C           11.292777        0.640130       12.392704
  H           11.454415        1.679422       12.704446
  H           11.143215        0.018181       13.283880
  O           12.328279        0.165289       11.587883
  H           13.125019        0.195451       12.101998
  H           17.012172       10.744930       12.927284
  C           16.170632       11.143338       13.500670
  H           16.314102       10.917508       14.564557
  H           16.121563       12.231298       13.369068
  O           15.052180       10.498833       12.972322
  H           14.292113       10.815876       13.443281
  H           14.411228        4.200668        7.436734
  C           14.521283        4.870096        6.579153
  H           15.061892        5.773322        6.887965
  H           15.091787        4.363237        5.791116
  O           13.212983        5.149296        6.184345
  H           13.259432        5.731760        5.436951
  H            4.496305       12.649765        7.836891
  C            5.459036       12.388490        7.389037
  H            5.304685       11.639293        6.602706
  H            5.910889       13.284573        6.946040
  O            6.213575       11.889114        8.450532
  H            7.063971       11.647518        8.106327
  H            7.367128       15.895175        2.293136
  C            7.703021       15.840423        1.253969
  H            7.095209       16.514409        0.637734
  H            8.753771       16.149615        1.193078
  O            7.527269       14.502640        0.900526
  H            7.807922       14.407154       -0.000660
  H            2.812266        4.256148        8.435686
  C            2.577761        4.078430        7.382542
  H            3.213103        3.270940        6.998173
  H            1.525779        3.782276        7.287626
  O            2.839487        5.296996        6.756384
  H            2.648633        5.189417        5.833334
  H            2.435402        1.464729       11.583592
  C            2.354639        2.058818       10.669138
  H            1.380019        1.876170       10.199890
  H            2.438555        3.124100       10.917165
  O            3.412313        1.619412        9.873071
  H            3.381730        2.111195        9.062372
  H            4.375439       11.733371       13.059709
  C            4.723391       11.344702       12.098691
  H            3.861999       11.015855       11.504300
  H            5.252509       12.136691       11.554476
  O            5.565588       10.285019       12.435222
  H            5.893618        9.914152       11.625979
  H           10.560175        8.767553       18.004835
  C           10.404071        9.255606       17.038850
  H            9.749138        8.633076       16.416791
  H            9.927648       10.231253       17.195428
  O           11.684083        9.376270       16.498032
  H           11.597233        9.797784       15.652571
  H           16.570828        5.966468       12.728048
  C           17.179810        5.311798       13.364698
  H           17.610039        4.529833       12.725468
  H           18.010148        5.910072       13.761933
  C           16.393774        4.695006       14.490011
  O           15.209036        4.917689       14.653245
  C           17.172612        3.783919       15.399890
  H           17.600527        2.949061       14.829795
  H           18.004079        4.328817       15.865617
  H           16.558961        3.359123       16.204730
  H           17.010733        7.133818        8.473989
  C           17.082774        7.584567        9.472192
  H           16.385642        7.050773       10.131170
  H           18.098516        7.404514        9.847739
  C           16.778573        9.058363        9.471337
  O           16.487493        9.661004        8.455496
  C           16.858805        9.736346       10.812400
  H           16.152373        9.276816       11.515886
  H           17.866140        9.628618       11.235274
  H           16.630385       10.808767       10.762172
  H           11.353876        1.510905        7.168616
  C           10.790998        1.090752        8.012069
  H           10.791257       -0.001640        7.903157
  H           11.337958        1.332788        8.932635
  C            9.380404        1.609238        8.089600
  O            8.937864        2.410533        7.288401
  C            8.554130        1.069300        9.225509
  H            8.476825       -0.023552        9.156173
  H            9.025023        1.308577       10.187880
  H            7.534755        1.475982        9.241969
  H           12.859171       14.146005       10.510037
  C           12.561666       14.675711       11.424190
  H           11.830844       14.048535       11.951192
  H           13.449069       14.761165       12.064816
  C           11.981941       16.036811       11.148623
  O           11.868270       16.478288       10.020788
  C           11.552244       16.814971       12.362863
  H           10.785589       16.261136       12.920191
  H           12.404263       16.972302       13.037001
  H           11.137442       17.800012       12.113027
  H           12.225180        8.960870        9.254286
  C           12.701392        9.159472        8.285497
  H           13.025519        8.196965        7.868721
  H           11.935797        9.570801        7.614779
  C           13.867840       10.104464        8.390382
  O           14.222429       10.583570        9.450835
  C           14.566113       10.416722        7.094443
  H           14.955323        9.496979        6.638704
  H           13.864384       10.869334        6.381792
  H           15.408128       11.109541        7.220140
  H            9.851179       14.268252        1.483405
  C            9.799512       13.188036        1.671121
  H            9.668179       13.042305        2.751258
  H            8.899669       12.804788        1.172530
  C           11.019642       12.451752        1.187612
  O           11.949862       13.020092        0.647690
  C           11.011200       10.964561        1.417266
  H           10.923256       10.743799        2.489012
  H           10.151925       10.504833        0.911846
  H           11.919413       10.471088        1.047916
  H           16.736820        1.477020       13.398535
  C           16.361522        1.916134       12.465205
  H           17.181002        2.489128       12.012093
  H           16.115904        1.091807       11.783043
  C           15.159852        2.797238       12.675577
  O           14.675881        2.983973       13.775912
  C           14.597292        3.431850       11.432459
  H           15.356441        4.057952       10.945841
  H           14.292890        2.659927       10.713692
  H           13.722788        4.063599       11.634755
  H            2.347149       12.300779       16.405177
  C            2.177291       11.855026       15.416629
  H            1.367728       12.415878       14.931620
  H            3.087659       12.004613       14.821614
  C            1.832227       10.391935       15.486676
  O            1.757720        9.791878       16.542241
  C            1.585499        9.721243       14.162347
  H            0.754375       10.208490       13.636104
  H            2.474606        9.799154       13.523151
  H            1.338712        8.656488       14.263238
  H           16.212113        7.472388        5.706148
  C           16.920551        7.104249        4.952912
  H           17.719307        7.850592        4.852209
  H           17.373807        6.183288        5.342242
  C           16.273615        6.845941        3.618984
  O           15.087373        7.033278        3.425154
  C           17.193578        6.340137        2.540847
  H           18.000126        7.061794        2.357001
  H           17.658035        5.393989        2.847825
  H           16.677845        6.165495        1.587796
  H           12.420442       11.607008        4.900663
  C           11.505381       11.487939        5.495020
  H           10.698955       12.024535        4.978374
  H           11.245470       10.421345        5.498479
  C           11.653481       11.995212        6.904045
  O           12.690929       12.480345        7.314148
  C           10.431144       11.861746        7.771586
  H            9.589155       12.412984        7.333066
  H           10.132769       10.808326        7.851782
  H           10.586771       12.243374        8.788900
  H           17.935968       13.125924        6.940365
  C           17.467798       13.486003        6.015198
  H           16.434667       13.771520        6.252480
  H           17.999830       14.394050        5.702821
  C           17.488325       12.461865        4.912777
  O           17.980192       11.359001        5.059722
  C           16.859082       12.894400        3.616044
  H           15.804775       13.157580        3.771868
  H           17.368593       13.783373        3.221993
  H           16.898473       12.116382        2.842789
  H           13.648117        6.488121       14.550192
  C           13.248167        6.065007       15.480670
  H           13.117274        4.985771       15.328032
  H           14.006851        6.200165       16.262539
  C           11.947709        6.696623       15.898381
  O           11.418987        7.582275       15.253471
  C           11.345433        6.158404       17.168079
  H           11.148033        5.082848       17.071532
  H           12.039334        6.294686       18.007770
  H           10.399997        6.649174       17.432808
  H           17.710229       15.878688       16.146697
  C           16.898224       15.349481       15.631564
  H           17.211579       15.187140       14.592028
  H           16.789305       14.364174       16.103258
  C           15.593218       16.097621       15.674675
  O           15.479366       17.173685       16.230517
  C           14.438370       15.424442       14.983512
  H           14.667708       15.266866       13.921588
  H           14.245983       14.440758       15.431291
  H           13.509142       16.005738       15.041967
  H            6.621569        4.421260       12.496780
  C            7.350947        3.812493       11.947065
  H            7.474760        2.866938       12.490918
  H            6.918096        3.577069       10.966043
  C            8.679495        4.499693       11.781754
  O            8.893670        5.613803       12.220756
  C            9.725377        3.715284       11.036514
  H            9.931122        2.767586       11.550952
  H            9.373610        3.474507       10.024862
  H           10.675572        4.256211       10.940014
  H            5.655221        6.267746       13.667848
  C            6.635816        6.285800       14.160678
  H            7.374583        6.625077       13.422914
  H            6.594691        7.037813       14.959410
  C            7.032586        4.947110       14.722012
  O            6.320514        3.965504       14.625898
  C            8.370080        4.904857       15.410396
  H            9.167641        5.195128       14.714158
  H            8.389642        5.610843       16.250845
  H            8.615713        3.910039       15.803827
  H            2.236524       10.353023        5.865650
  C            1.856902       10.531524        4.851353
  H            2.276945        9.757321        4.196102
  H            0.768029       10.393386        4.872859
  C            2.200639       11.901174        4.331240
  O            2.833077       12.705881        4.988739
  C            1.709016       12.208061        2.942473
  H            2.126013       11.491973        2.222445
  H            0.615251       12.125562        2.897481
  H            1.982152       13.216791        2.606843
  H           10.395419        0.956183       16.003950
  C            9.360682        0.934507       16.369496
  H            9.216289       -0.010854       16.908592
  H            9.245011        1.751004       17.094162
  C            8.347597        1.067683       15.264717
  O            8.670639        1.186735       14.097967
  C            6.907586        1.043595       15.700995
  H            6.679751        0.100910       16.215335
  H            6.707761        1.862443       16.404352
  H            6.206460        1.144664       14.862548
  H            0.120373        6.367374        3.029007
  C            0.768561        5.637169        3.530433
  H            1.795166        6.024889        3.499814
  H            0.463676        5.587480        4.583886
  C            0.705434        4.271163        2.902217
  O            0.000004        4.030217        1.940890
  C            1.574178        3.223195        3.543773
  H            2.628208        3.528286        3.511400
  H            1.298668        3.091789        4.598278
  H            1.494382        2.244606        3.053077
  H            7.763921       12.313014        6.119660
  C            7.891898       11.420074        5.494317
  H            8.861642       10.971517        5.746458
  H            7.110757       10.701261        5.774162
  C            7.821585       11.722714        4.021877
  O            7.639692       12.848360        3.598001
  C            7.991561       10.538446        3.109098
  H            8.965667       10.061620        3.278992
  H            7.215271        9.788176        3.308144
  H            7.931922       10.807240        2.046563
  H           11.669740       14.503472       16.207333
  C           11.114669       13.964184       15.428976
  H           10.414917       14.672139       14.966021
  H           11.833462       13.655967       14.658569
  C           10.373602       12.767855       15.962107
  O           10.405585       12.454516       17.137110
  C            9.590130       11.985233       14.943175
  H            8.837283       12.625736       14.465592
  H           10.255899       11.610637       14.154771
  H            9.068133       11.122845       15.377449
  H            5.128348        0.000001        8.081554
  C            5.560093        0.742519        7.398153
  H            5.570194        1.709364        7.918047
  H            6.602928        0.456265        7.209100
  C            4.804213        0.852692        6.101573
  O            3.821822        0.176125        5.862824
  C            5.345907        1.856642        5.120143
  H            5.346475        2.861453        5.562254
  H            6.382096        1.610193        4.854195
  H            4.763818        1.900926        4.190629
  H           16.351316       -0.003408        2.677289
  C           16.752750        0.624055        3.483462
  H           16.369352        0.232178        4.434577
  H           17.843788        0.502466        3.489914
  C           16.388764        2.076178        3.330277
  O           15.719549        2.483472        2.399633
  C           16.908717        2.990538        4.406448
  H           16.528611        2.680033        5.388392
  H           18.004998        2.948928        4.446328
  H           16.619443        4.038064        4.252189
  H            8.098952        5.246777        1.330217
  C            8.661802        5.952329        0.705581
  H            9.262822        5.366495       -0.002059
  H            7.936518        6.534741        0.122531
  C            9.544284        6.868965        1.509085
  O            9.606233        6.812027        2.722656
  C           10.345113        7.860973        0.709621
  H           11.004735        7.339520        0.003863
  H            9.678075        8.507776        0.124935
  H           10.971803        8.507509        1.337344
  H            8.938300        4.442331        8.108118
  C            8.260658        5.164734        8.581096
  H            7.768860        5.734589        7.781983
  H            7.484126        4.597484        9.110638
  C            8.967642        6.095168        9.529294
  O           10.165376        6.029511        9.731675
  C            8.092566        7.112522       10.210310
  H            7.597026        7.749700        9.466299
  H            7.308829        6.612588       10.794241
  H            8.650980        7.767042       10.891900
